# DO NOT EDIT THIS FILE !
# Autogenerated by 'configure' on @DATE@

# A few parameters from emc2/Makefile.inc
EMC2_HOME=$TESTDIR@EMC2_HOME@
MAN_DIR=$TESTDIR@mandir@
KERNELDIR=@KERNELDIR@
RTLIB_DIR=$TESTDIR@MODULE_DIR@

# Sets the default DEBUG level
DEBUG='3'
MODPATH=@RTLIB_DIR@
MODPATH=$TESTDIR@MODULE_DIR@

# List of realtime kernel modules to be loaded"

MODULES=@RTAI3_MOD@ @RTAI_MOD@ @RTL_MOD@
RTAI=@RTAI@
# This one isn't part of our distribution.
RTAI_LOAD=@RTDIR@/bin/rtai-load

