#! /bin/bash

CheckConfig(){
    RTAPICONF=
    # check for rtapi.conf in /etc/ first...
    if [ -f /etc/rtapi.conf ] ; then
	RTAPICONF=/etc/rtapi.conf
    else
	# check in the emc2 scripts directory
	# $0 is the command to run this script
	# strip the script name to leave the path
	SCRIPT_DIR=`echo $0 | sed s#realtime## `
	# the path might be relative
	# convert it to an absolute path
	SCRIPT_DIR=$(cd $SCRIPT_DIR ; pwd -P)
	# now look for rtapi.conf there
	if [ -f $SCRIPT_DIR/rtapi.conf ] ; then
	    RTAPICONF=$SCRIPT_DIR/rtapi.conf
	fi
    fi
    if [ -z "$RTAPICONF" ] ; then
	echo "Missing rtapi.conf. Did you run 'make rtapi' ?"
	exit -1
    fi
    # Import the config
    source $RTAPICONF
    # Export the module path specified in the config.
    export MODPATH
    # Generate module lists for loading and unloading
    # lists contain RTOS modules plus RTAPI and HAL
    # unload list is in reverse order
    # any module names that are symlinks are resolved to their real names
    MODULES_LOAD=
    MODULES_UNLOAD=
    for  MOD in $MODULES ; do
	# find module
	TMP=`find $MODPATH -name $MOD$MODULE_EXT`
	if test -n "$TMP" ; then
	    # it exists, is it a symlink?
            if test -L "$TMP" ; then
		# it is a symlink, must extract real module name
		# get long directory entry
		TMP=`ls -l $TMP`
		# remove everything except the last token, which
		# should be the destination of the symbolic link
		TMP="${TMP##* }"
		TMP="${TMP##*/}"
		# remove the .o  (or .ko) from the end
		MOD="${TMP%$MODULE_EXT}"
	    fi
	fi
	MODULES_LOAD="$MODULES_LOAD $MOD"
	MODULES_UNLOAD="$MOD $MODULES_UNLOAD"
    done
    MODULES_LOAD="$MODULES_LOAD $RTLIB_DIR/rtapi$MODULE_EXT $RTLIB_DIR/hal_lib$MODULE_EXT"
    MODULES_UNLOAD="hal_lib rtapi $MODULES_UNLOAD"
    # find "fuser" - it might be in /bin or /sbin
    if test -x /bin/fuser ; then
	FUSER=/bin/fuser
    elif test -x /sbin/fuser ; then
	FUSER=/sbin/fuser
    else
	echo "ERROR: can't find \"fuser\", used to verify that it is safe to shutdown realtime"
	DoExit
	exit -1
    fi


}

CheckStatus(){
    # check loaded/unloaded status of modules
    for MOD in $MODULES_UNLOAD ; do
	if /sbin/lsmod | awk '{print $1}' | grep -x $MOD >/dev/null ; then
	    echo "$MOD is loaded"
	else
	    echo "$MOD is not loaded"
	fi
    done
}

CheckRoot(){
    # checks to see if the user is root
    # first try whoami, then id
    if type whoami >/dev/null 2>/dev/null ; then
	if [ ! `whoami` = root ] ; then
	    echo "ERROR:  You must be root to run this command"
	    DoExit
	    exit -1
	fi
    elif type id >/dev/null 2>/dev/null ; then
	if [ ! `id -u` = 0 ] ; then
	    echo "ERROR:  You must be root to run this command"
	    DoExit
	    exit -1
	fi
    fi
    # if we get here, either the user is root, or both whoami
    # and id don't exist on this system... in either case we
    # should attempt to load/unload modules, so we return
}

CheckMem(){
# check for user space processes using shared memory
    if [ -e /dev/mbuff ] ; then
	# device file exists, check for processes using it
	if $FUSER -s /dev/mbuff 2>/dev/null; then
	    # at least one process is using it
	    echo "ERROR:  Can't remove RTLinux modules, kill the following process(es) first"
	    $FUSER -v /dev/mbuff
	    DoExit
	    exit -1
	fi
    elif [ -e /dev/rtai_shm ] ; then
	# device file exists, check for processes using it
	if $FUSER -s /dev/rtai_shm 2>/dev/null; then
	    # at least one process is using it
	    echo "ERROR:  Can't remove RTAI modules, kill the following process(es) first"
	    $FUSER -v /dev/rtai_shm
	    DoExit
	    exit -1
	fi
    fi
}

Load(){
    if [ "$RTAI" = "3" ] ; then
	if [ "$VERBOSE" = "1" ] ; then
	    ( cd $EMC2_HOME/scripts ; $RTAI_LOAD --verbose )
	else
	    ( cd $EMC2_HOME/scripts ; $RTAI_LOAD )
	fi
    fi
    for MOD in $MODULES_LOAD ; do
	# check to see if the module is already installed
	if ! /sbin/lsmod | awk '{print $1}' | grep -x $MOD >/dev/null ; then
	    # install the module - use insmod
	    if [ "$VERBOSE" = "1" ] ; then
	        /sbin/insmod $MOD
	    else
	        /sbin/insmod $MOD 1>/dev/null
	    fi
        fi
    done
    if [ "$DEBUG" != "" ] && [ -w /proc/rtapi/debug ] ; then
        echo "$DEBUG" > /proc/rtapi/debug
    fi
}

CheckLoaded(){
# checks to see if rtapi and hal_lib modules were loaded
# (would like to check all modules, but some may not actually
#  be required or present on all systems)
    STATUS=
    for module in rtapi hal_lib ; do
	# check to see if the module is installed
	if ! /sbin/lsmod | awk '{print $1}' | grep -x $module >/dev/null ; then
	    echo "ERROR: Could not load '$module'"
	    STATUS=error
	fi
    done
    if [ -n "$STATUS" ] ; then
	DoExit
	exit -1
    fi
}

Unload(){
    for module in $MODULES_UNLOAD ; do
        if /sbin/lsmod | awk '{print $1}' | grep -x $module >/dev/null ; then
	    /sbin/rmmod $module
	fi
    done
}

CheckUnloaded(){
# checks to see if all modules were unloaded
    STATUS=
    for module in $MODULES_UNLOAD ; do
	# check to see if the module is installed
	if /sbin/lsmod | awk '{print $1}' | grep -x $module >/dev/null ; then
	    echo "ERROR: Could not unload '$module'"
	    STATUS=error
	fi
    done
    if [ -n "$STATUS" ] ; then
	DoExit
	exit -1
    fi
}

DoExit(){
    # Nothing here right now
    :
}

if [ "$1" = "-v" ] ; then
  CMD=$2
  VERBOSE=1
else
  CMD=$1
  VERBOSE=0
fi

case "$CMD" in
  start|load)
	CheckConfig
	CheckRoot
	Load
	CheckLoaded
	DoExit
	;;
  restart|reload)
	CheckConfig
	CheckRoot
	CheckMem
	Unload
	CheckUnloaded
	Load
	CheckLoaded
	DoExit
	;;
  stop|unload)
	CheckConfig
	CheckRoot
	CheckMem
	Unload
	CheckUnloaded
	DoExit
	;;
  status)
	CheckConfig
	CheckStatus
	DoExit
	;;
  *)
	echo "Usage: $0 {start|load|stop|unload|restart|reload|status}" >&2
	exit 1
	;;
esac

exit 0

