#!/bin/bash
### BEGIN INIT INFO
# Provides:          realtime
# Required-Start:    $remote_fs $syslog
# Required-Stop:     $remote_fs $syslog
# Default-Start:
# Default-Stop:      0 1 6
# Short-Description: enable realtime capabilities when needed
# Description:       This script manages the LinuxCNC realtime infrastructure
#  for uspace/RT_PREEMPT configurations. The script is not meant to be started
#  at boot time - it could be, though.
# X-Interactive:     false
### END INIT INFO
#
# @configure_input@ 
# on @DATE@
#

export LANG=C

GREP=@GREP@
PS=@PS@

CheckKernel() {
    case "@KERNEL_VERS@" in
    "") ;;
    *)
	if [ `uname -r` != "@KERNEL_VERS@" ]; then
	    cat 1>&2 << EOF
RTAPI requires the real-time kernel @KERNEL_VERS@ to run.  Before running
this realtime application, reboot and choose this kernel at the boot menu.
EOF
	    exit 1
	fi
    esac
}

RUN_IN_PLACE=@RUN_IN_PLACE@
if [ $RUN_IN_PLACE = yes ]; then
    # When using RIP make sure PATH includes the directory where rtapi_app
    # resides
    PATH=@EMC2_HOME@/bin:$PATH; export PATH
fi

CheckConfig(){
    prefix=@prefix@
    exec_prefix=@exec_prefix@
    sysconfdir=@sysconfdir@
    if [ $RUN_IN_PLACE = yes ]; then
        RTAPICONF=
        # check in the LinuxCNC scripts directory
        # $0 is the command to run this script
        # strip the script name to leave the path
        SCRIPT_DIR=${0%/*}
        # the path might be relative
        # convert it to an absolute path
        SCRIPT_DIR=$(cd $SCRIPT_DIR ; pwd -P)
        # now look for rtapi.conf there
        if [ -f $SCRIPT_DIR/rtapi.conf ] ; then
            RTAPICONF=$SCRIPT_DIR/rtapi.conf
        fi
    else
        if [ -f $sysconfdir/linuxcnc/rtapi.conf ]; then
                RTAPICONF=$sysconfdir/linuxcnc/rtapi.conf
        fi
    fi
    if [ -z "$RTAPICONF" ] ; then
	echo "Missing rtapi.conf.  Check your installation." 1>&2
	exit 1
    fi
    INSMOD="@INSMOD@"
    RMMOD="@RMMOD@"
    LSMOD="@LSMOD@"
    FUSER="@FUSER@"

    # Import the config
    source $RTAPICONF
    if [ ! -e $RTLIB_DIR/.runinfo -a -e $RTLIB_DIR/emc2/.runinfo ]; then
        # installed system: we don't want our modules mixed up with other modules
        RTLIB_DIR=$RTLIB_DIR/emc2
    fi
    # Export the module path specified in the config.
    export MODPATH
    # For uspace, no kernel modules are needed
    MODULES_LOAD=
    MODULES_UNLOAD=
    SHM_DEV=/dev/zero
}

CheckStatus(){
    # Check if rtapi_app is running for uspace
    if [ -z "$($PS -o stat= -o comm= -C rtapi_app | $GREP -v '^Z')" ]; then
        exit 1
    else
        exit 0
    fi
}

CheckMem(){
    # For uspace, no kernel module shared memory devices to check
    return 0
}

Load(){
    CheckKernel
    for MOD in $MODULES_LOAD ; do
	if ! [ -d /sys/module/`basename $MOD .ko` ]; then
		$INSMOD $MOD || return $?
	fi
    done
    if [ "$DEBUG" != "" ] && [ -w /proc/rtapi/debug ] ; then
        echo "$DEBUG" > /proc/rtapi/debug
    fi
}

CheckLoaded(){
    # this abomination is needed because udev sometimes doesn't
    # have the device ready for us in time.
    n=0
    while [ $n -lt 100 ]; do
        [ -w $SHM_DEV ] && return 0
        echo "." 1>&2
        sleep .1
        n=$(($n+1))
    done
    echo "Can't write to $SHM_DEV - aborting" 1>&2
    exit 1
}

Unload(){
    CheckKernel
    # For uspace, signal rtapi_app to exit
    rtapi_app exit 

    # wait 5 seconds for rtapi_app to die and be reaped by its parent
    START=$SECONDS
    local NPROCS
    while [ 5 -gt $((SECONDS-START)) ]; do
        NPROCS=$(ps -C rtapi_app -o stat= -o comm= | $GREP -v '^Z' | wc -l)
        if [ $NPROCS -eq 0 ]; then
            break
        fi
        sleep 0.1
    done
    NPROCS=$(ps -C rtapi_app -o stat= -o comm= | $GREP -v '^Z' | wc -l)
    if [ $NPROCS -gt 0 ]; then
        echo "ERROR: rtapi_app failed to die" 1>&2
    fi

    # Clean up shared memory segments
    ipcrm -M 0x48414c32 2>/dev/null ;# HAL_KEY
    ipcrm -M 0x90280A48 2>/dev/null ;# RTAPI_KEY
    ipcrm -M 0x48484c34 2>/dev/null ;# UUID_KEY
}

CheckUnloaded(){
    # For uspace, nothing to check since no kernel modules are loaded
    return 0
}

CMD=$1

case "$CMD" in
  start|load)
	CheckConfig
	Load || exit $?
	CheckLoaded
	;;
  restart|force-reload)
	CheckConfig
	CheckMem
	Unload
	CheckUnloaded
	Load || exit $?
	CheckLoaded
	;;
  stop|unload)
	CheckConfig
	CheckMem
	Unload || exit $?
	;;
  status)
	CheckConfig
	CheckStatus
	;;
  *)
	echo "Usage: $0 {start|load|stop|unload|restart|force-reload|status}" >&2
	exit 1
	;;
esac

exit 0

