# DO NOT EDIT THIS FILE !
# Autogenerated by 'make' on Tue Feb 14 10:34:56 CST 2006

# A few parameters from emc2/Makefile.inc
EMC2_HOME=@EMC2_HOME@
KERNELDIR=@KERNELDIR@
RTLIB_DIR=@EMC2_RTLIB_DIR@
MODULE_EXT=@MODEXT@

# Sets the default DEBUG level
DEBUG='3'

# Path to the realtime kernel modules
MODPATH=@MODULE_DIR@

# List of realtime kernel modules to be loaded
if [ @RTAI@ = 3 ] ; then \
    MODULES="adeos rtai_hal rtai_ksched rtai_fifos rtai_shm rtai_sem rtai_math"
    RTAI=@RTAI@
    RTAI_LOAD=@RTDIR@/bin/rtai-load
elif [ @RTPREFIX@ = rtai ] ; then
    MODULES="adeos rtai rt_mem_mgr rtai_sched rtai_fifos rtai_shm rtai_libm"
elif [ @RTPREFIX@ = rtl ] ; then
    MODULES="rtl mbuff rtl_time rtl_sched rtl_posixio rtl_fifo"
fi
