# DO NOT EDIT THIS FILE !
#
# @configure_input@ 
# on @DATE@
#

# A few parameters from emc2/Makefile.inc
EMC2_HOME=@EMC2_HOME@
KERNELDIR=@KERNELDIR@
RTLIB_DIR=@EMC2_RTLIB_DIR@
MODULE_EXT=@MODEXT@
RTPREFIX=@RTPREFIX@
KERNEL_VERS=@KERNEL_VERS@

# Sets the default DEBUG level
DEBUG='1'

# Path to the realtime kernel modules
MODPATH=@MODULE_DIR@

# List of realtime kernel modules to be loaded
# For uspace (RT_PREEMPT), no kernel modules are needed
MODULES=
